Version 4
SHEET 1 1264 696
WIRE 368 -224 48 -224
WIRE 48 -176 48 -224
WIRE 48 -80 48 -96
WIRE 256 -80 224 -80
WIRE 368 -80 368 -224
WIRE 368 -80 336 -80
WIRE 368 -64 368 -80
WIRE 448 -64 368 -64
WIRE 368 -32 368 -64
WIRE 16 -16 -64 -16
WIRE 112 -16 16 -16
WIRE 224 -16 224 -80
WIRE 224 -16 192 -16
WIRE 320 -16 224 -16
WIRE 448 0 448 -64
WIRE 448 0 432 0
WIRE 320 16 320 -16
WIRE 336 16 320 16
WIRE 464 32 432 32
WIRE -64 96 -64 64
WIRE 224 96 192 96
WIRE 368 96 368 64
WIRE 368 96 304 96
WIRE 464 96 464 32
WIRE 464 96 368 96
WIRE 368 128 368 96
WIRE 272 272 256 272
WIRE 368 272 368 208
WIRE 368 272 336 272
WIRE 368 320 368 272
WIRE 368 320 336 320
WIRE 368 352 368 320
WIRE 368 352 224 352
WIRE 16 384 16 -16
WIRE 48 384 16 384
WIRE 224 384 128 384
WIRE 304 384 224 384
WIRE 368 384 368 352
WIRE 464 384 368 384
WIRE 368 416 368 384
WIRE 224 432 224 384
WIRE 368 432 368 416
WIRE 464 432 464 384
WIRE -64 496 -64 464
WIRE 368 512 368 496
WIRE 464 512 464 496
WIRE 464 512 368 512
WIRE 224 528 224 512
WIRE 368 544 368 512
WIRE 304 624 304 384
WIRE 320 624 304 624
WIRE 368 672 368 640
FLAG 256 272 0
FLAG 272 320 0
FLAG 368 672 0
FLAG -64 96 0
FLAG -64 496 0
FLAG 48 -80 0
FLAG 192 96 0
FLAG 224 528 0
SYMBOL voltage 48 -192 R0
SYMATTR InstName V1
SYMATTR Value 28
SYMBOL res 352 112 R0
SYMATTR InstName R1
SYMATTR Value 220
SYMBOL cap 336 304 R90
WINDOW 0 13 9 VBottom 2
WINDOW 3 -12 114 VTop 2
SYMATTR InstName C2
SYMATTR Value 4.7mf
SYMATTR SpiceLine Rser=50m
SYMBOL voltage -64 -32 R0
WINDOW 3 -460 46 Left 2
WINDOW 123 0 0 Left 0
WINDOW 39 0 0 Left 0
SYMATTR Value PULSE(0 28 0 100n 100n 50s 100s 10)
SYMATTR InstName V2
SYMBOL ind 352 400 R0
SYMATTR InstName L1
SYMATTR Value 100mh
SYMATTR SpiceLine Rser=9.2
SYMBOL cap 336 256 R90
WINDOW 0 11 0 VBottom 2
WINDOW 3 -8 133 VTop 2
SYMATTR InstName C1
SYMATTR Value 4.7mf
SYMATTR SpiceLine Rser=50m
SYMBOL voltage -64 368 R0
WINDOW 3 -541 49 Left 2
WINDOW 123 0 0 Left 0
WINDOW 39 0 0 Left 0
SYMATTR Value PULSE(0 28 50.01s 100n 100n 49.9 100 100)
SYMATTR InstName V3
SYMBOL diode 480 496 R180
WINDOW 0 24 64 Left 2
WINDOW 3 24 0 Left 2
SYMATTR InstName D1
SYMBOL res 352 -96 R90
WINDOW 0 0 56 VBottom 2
WINDOW 3 32 56 VTop 2
SYMATTR InstName R2
SYMATTR Value 1k
SYMBOL res 208 -32 R90
WINDOW 0 0 56 VBottom 2
WINDOW 3 32 56 VTop 2
SYMATTR InstName R3
SYMATTR Value 1k
SYMBOL res 144 368 R90
WINDOW 0 0 56 VBottom 2
WINDOW 3 32 56 VTop 2
SYMATTR InstName R4
SYMATTR Value 470
SYMBOL res 240 528 R180
WINDOW 0 36 76 Left 2
WINDOW 3 36 40 Left 2
SYMATTR InstName R5
SYMATTR Value 1k
SYMBOL AutoGenerated\\FQD17P06 384 16 R0
SYMATTR InstName U1
SYMBOL AutoGenerated\\FQD17P06 1200 304 R0
SYMATTR InstName U2
SYMBOL res 320 80 R90
WINDOW 0 0 56 VBottom 2
WINDOW 3 32 56 VTop 2
SYMATTR InstName R6
SYMATTR Value 100k
SYMBOL nmos 320 544 R0
SYMATTR InstName M1
SYMATTR Value FDB2532
TEXT -96 680 Left 2 !.tran 500s
TEXT 528 168 Left 2 !.include FQD17P06.lib
