Version 4
SHEET 1 1060 696
WIRE 368 -80 48 -80
WIRE 368 -48 368 -80
WIRE 48 -32 48 -80
WIRE 48 64 48 48
WIRE 256 64 224 64
WIRE 368 64 368 32
WIRE 368 64 336 64
WIRE 368 80 368 64
WIRE 448 80 368 80
WIRE 368 112 368 80
WIRE 112 128 -64 128
WIRE 224 128 224 64
WIRE 224 128 192 128
WIRE 320 128 224 128
WIRE 448 144 448 80
WIRE 448 144 432 144
WIRE 320 160 320 128
WIRE 336 160 320 160
WIRE 464 176 432 176
WIRE 336 208 304 208
WIRE -64 240 -64 208
WIRE 336 240 336 208
WIRE 368 240 368 208
WIRE 368 240 336 240
WIRE 464 240 464 176
WIRE 464 240 368 240
WIRE 272 272 256 272
WIRE 368 272 368 240
WIRE 368 272 336 272
WIRE 368 320 368 272
WIRE 368 320 336 320
WIRE 368 352 368 320
WIRE 368 352 224 352
WIRE 464 352 368 352
WIRE 48 384 -64 384
WIRE 144 384 144 352
WIRE 144 384 128 384
WIRE 304 384 144 384
WIRE 464 400 464 352
WIRE 464 400 432 400
WIRE 304 416 304 384
WIRE 336 416 304 416
WIRE 464 432 432 432
WIRE 368 480 368 464
WIRE 464 480 464 432
WIRE 464 480 368 480
WIRE -64 496 -64 464
WIRE 368 512 368 480
WIRE 368 512 352 512
WIRE 464 512 368 512
WIRE 368 544 368 512
WIRE 464 560 464 512
WIRE 368 640 368 624
WIRE 464 640 464 624
WIRE 464 640 368 640
WIRE 368 656 368 640
FLAG 256 272 0
FLAG 272 320 0
FLAG 368 656 0
FLAG -64 240 0
FLAG -64 496 0
FLAG 48 64 0
FLAG 224 208 0
SYMBOL voltage 48 -48 R0
SYMATTR InstName V1
SYMATTR Value 28
SYMBOL res 352 -64 R0
SYMATTR InstName R1
SYMATTR Value 220
SYMBOL cap 336 304 R90
WINDOW 0 13 9 VBottom 2
WINDOW 3 -12 114 VTop 2
SYMATTR InstName C2
SYMATTR Value 4.7mf
SYMATTR SpiceLine Rser=50m
SYMBOL voltage -64 112 R0
WINDOW 3 -460 46 Left 2
WINDOW 123 0 0 Left 0
WINDOW 39 0 0 Left 0
SYMATTR InstName V2
SYMATTR Value PULSE(0 28 0 100n 100n 50s 100s 2)
SYMBOL ind 352 528 R0
SYMATTR InstName L1
SYMATTR Value 100mh
SYMATTR SpiceLine Rser=9.2
SYMBOL cap 336 256 R90
WINDOW 0 11 0 VBottom 2
WINDOW 3 -8 133 VTop 2
SYMATTR InstName C1
SYMATTR Value 4.7mf
SYMATTR SpiceLine Rser=50m
SYMBOL voltage -64 368 R0
WINDOW 3 -541 49 Left 2
WINDOW 123 0 0 Left 0
WINDOW 39 0 0 Left 0
SYMATTR InstName V3
SYMATTR Value PULSE(0 28 50.01s 100n 100n 49.9 100 100)
SYMBOL diode 480 624 R180
WINDOW 0 24 64 Left 2
WINDOW 3 24 0 Left 2
SYMATTR InstName D1
SYMBOL res 352 48 R90
WINDOW 0 0 56 VBottom 2
WINDOW 3 32 56 VTop 2
SYMATTR InstName R2
SYMATTR Value 100k
SYMBOL res 208 112 R90
WINDOW 0 0 56 VBottom 2
WINDOW 3 32 56 VTop 2
SYMATTR InstName R3
SYMATTR Value 47k
SYMBOL res 144 368 R90
WINDOW 0 0 56 VBottom 2
WINDOW 3 32 56 VTop 2
SYMATTR InstName R4
SYMATTR Value 47k
SYMBOL res 240 336 R90
WINDOW 0 0 56 VBottom 2
WINDOW 3 32 56 VTop 2
SYMATTR InstName R5
SYMATTR Value 100k
SYMBOL AutoGenerated\\FQD17P06 384 160 R0
SYMATTR InstName U1
SYMBOL AutoGenerated\\FQD17P06 384 416 R0
SYMATTR InstName U2
SYMBOL res 320 192 R90
WINDOW 0 0 56 VBottom 2
WINDOW 3 32 56 VTop 2
SYMATTR InstName R6
SYMATTR Value 100k
TEXT -98 680 Left 2 !.tran 150s
TEXT 528 168 Left 2 !.include FQD17P06.lib
